/*--------------------------------*- C++ -*----------------------------------*\
  =========                 |
  \\      /  F ield         | OpenFOAM: The Open Source CFD Toolbox
   \\    /   O peration     | Website:  https://openfoam.org
    \\  /    A nd           | Version:  dev
     \\/     M anipulation  |
\*---------------------------------------------------------------------------*/
FoamFile
{
    format      ascii;
    class       surfaceLabelField;
    location    "constant/fvMesh";
    object      polyFaces;
}
// * * * * * * * * * * * * * * * * * * * * * * * * * * * * * * * * * * * * * //

dimensions      [];

internalField   uniform -1;

boundaryField
{
    inlet
    {
        type            polyFaces;
    }
    outlet
    {
        type            polyFaces;
    }
    walls
    {
        type            polyFaces;
    }
    nonCouple1
    {
        type            polyFaces;
    }
    nonCouple2
    {
        type            polyFaces;
    }
    defaultFaces
    {
        type            polyFaces;
    }
    nonConformalCyclic_on_nonCouple1
    {
        type            nonConformalPolyFaces;
        patchType       nonConformalCyclic;
        size            78;
        value           nonuniform List<label> 
78
(
21920
21920
21921
21921
21922
21922
21923
21923
21924
21924
21925
21925
21926
21926
21927
21927
21928
21928
21929
21929
21930
21930
21931
21931
21932
21932
21933
21933
21934
21934
21935
21935
21936
21936
21937
21937
21938
21938
21939
21940
21941
21941
21942
21942
21943
21943
21944
21944
21945
21945
21946
21946
21947
21947
21948
21948
21949
21949
21950
21950
21951
21951
21952
21952
21953
21953
21954
21954
21955
21955
21956
21956
21957
21957
21958
21958
21959
21959
)
;
    }
    nonConformalCyclic_on_nonCouple2
    {
        type            nonConformalPolyFaces;
        patchType       nonConformalCyclic;
        size            78;
        value           nonuniform List<label> 
78
(
21988
21989
21989
21990
21990
21991
21991
21992
21992
21993
21993
21994
21994
21995
21995
21996
21996
21997
21997
21998
21998
21999
21999
22000
22000
22001
22001
22002
22002
22003
22003
22004
22004
22005
22005
22006
22006
22007
22007
22008
22008
22009
22009
22010
22010
22011
22011
22012
22012
22013
22013
22014
22014
22015
22015
22016
22016
22017
22017
22018
22018
22019
22019
22020
22020
22021
22021
22022
22022
22023
22023
22024
22024
22025
22025
22026
22026
22027
)
;
    }
    nonConformalError_on_nonCouple1
    {
        type            nonConformalPolyFaces;
        patchType       nonConformalError;
        size            0;
        value           nonuniform List<label> 0();
    }
    nonConformalError_on_nonCouple2
    {
        type            nonConformalPolyFaces;
        patchType       nonConformalError;
        size            0;
        value           nonuniform List<label> 0();
    }
}


// ************************************************************************* //
